small_test_case_v_1.0/FOL/allendale/circuit_1/full/MODEL.glm
clock { timezone  EST+5EDT; starttime '2016-08-01 00:00:00'; stoptime '2016-08-08 00:00:00'; }

#set relax_naming_rules=1;
#set iteration_limit=9;

module powerflow { solver_method NR; }
module tape;
module reliability;

object node:1 {
	name            node_1; // NodeID: UID_39-1-13_FDR
	phases          ABC;
	nominal_voltage 7621.0;
	bustype         SWING;
}

object node:2 {
	name            node_2; // NodeID: UID_39-1-2B
	phases          ABC;
	nominal_voltage 7621.0;
}

object node:3 {
	name            node_3; // NodeID: UID_BUS_39-1T_ALLENDALE
	phases          ABC;
	nominal_voltage 7621.0;
}

object node:4 {
	name            node_4; // NodeID: UID_FDR_CAB_39-1-13
	phases          ABC;
	nominal_voltage 7621.0;
}

object node:5 {
	name            node_5; // NodeID: 1602
	phases          ABC;
	nominal_voltage 7621.0;
}

object node:6 {
	name            node_6; // NodeID: 5360934
	phases          ABC;
	nominal_voltage 7621.0;
}

object node:7 {
	name            node_7; // NodeID: 5336223
	phases          ABC;
	nominal_voltage 7621.0;
}

object node:8 {
	name            node_8; // NodeID: 5076457
	phases          ABC;
	nominal_voltage 7621.0;
}

object node:9 {
	name            node_9; // NodeID: 5068744
	phases          ABC;
	nominal_voltage 7621.0;
}

object node:10 {
	name            node_10; // NodeID: 5070033
	phases          ABC;
	nominal_voltage 7621.0;
}

object node:11 {
	name            node_11; // NodeID: 5071333
	phases          ABC;
	nominal_voltage 7621.0;
}

object node:12 {
	name            node_12; // NodeID: 5072611
	phases          ABC;
	nominal_voltage 7621.0;
}

object node:13 {
	name            node_13; // NodeID: 5073903
	phases          ABC;
	nominal_voltage 7621.0;
}

object node:14 {
	name            node_14; // NodeID: 5075184
	phases          ABC;
	nominal_voltage 7621.0;
}

object node:15 {
	name            node_15; // NodeID: 5084026
	phases          ABC;
	nominal_voltage 7621.0;
}

object node:17 {
	name            node_17; // NodeID: 5087818
	phases          ABC;
	nominal_voltage 7621.0;
}

object node:18 {
	name            node_18; // NodeID: 5089092
	phases          ABC;
	nominal_voltage 7621.0;
}

object node:19 {
	name            node_19; // NodeID: 5090346
	phases          ABC;
	nominal_voltage 7621.0;
}

object node:20 {
	name            node_20; // NodeID: 5095360
	phases          B;
	nominal_voltage 7621.0;
}

object node:21 {
	name            node_21; // NodeID: 5096613
	phases          B;
	nominal_voltage 7621.0;
}

object node:22 {
	name            node_22; // NodeID: 5099089
	phases          B;
	nominal_voltage 7621.0;
}

object node:23 {
	name            node_23; // NodeID: 5104078
	phases          B;
	nominal_voltage 7621.0;
}

object node:24 {
	name            node_24; // NodeID: 8216209
	phases          B;
	nominal_voltage 7621.0;
}

object node:25 {
	name            node_25; // NodeID: 8232810
	phases          B;
	nominal_voltage 7621.0;
}

object node:26 {
	name            node_26; // NodeID: 5107758
	phases          B;
	nominal_voltage 7621.0;
}

object node:27 {
	name            node_27; // NodeID: 8216236
	phases          B;
	nominal_voltage 7621.0;
}

object node:28 {
	name            node_28; // NodeID: 8232824
	phases          B;
	nominal_voltage 7621.0;
}

object node:29 {
	name            node_29; // NodeID: 5108982
	phases          B;
	nominal_voltage 7621.0;
}

object node:30 {
	name            node_30; // NodeID: 5097853
	phases          B;
	nominal_voltage 7621.0;
}

object node:31 {
	name            node_31; // NodeID: 5101583
	phases          B;
	nominal_voltage 7621.0;
}

object node:32 {
	name            node_32; // NodeID: 5105307
	phases          B;
	nominal_voltage 7621.0;
}

object node:33 {
	name            node_33; // NodeID: 8216222
	phases          B;
	nominal_voltage 7621.0;
}

object node:35 {
	name            node_35; // NodeID: 5094109
	phases          ABC;
	nominal_voltage 7621.0;
}

object node:36 {
	name            node_36; // NodeID: 5113857
	phases          ABC;
	nominal_voltage 7621.0;
}

object node:37 {
	name            node_37; // NodeID: 5116281
	phases          ABC;
	nominal_voltage 7621.0;
}

object node:38 {
	name            node_38; // NodeID: 5117503
	phases          ABC;
	nominal_voltage 7621.0;
}

object node:39 {
	name            node_39; // NodeID: 5118717
	phases          C;
	nominal_voltage 7621.0;
}

object node:40 {
	name            node_40; // NodeID: 5128367
	phases          C;
	nominal_voltage 7621.0;
}

object node:41 {
	name            node_41; // NodeID: 5130748
	phases          C;
	nominal_voltage 7621.0;
}

object node:42 {
	name            node_42; // NodeID: 5131944
	phases          C;
	nominal_voltage 7621.0;
}

object node:43 {
	name            node_43; // NodeID: 5133118
	phases          C;
	nominal_voltage 7621.0;
}

object node:44 {
	name            node_44; // NodeID: 5134302
	phases          C;
	nominal_voltage 7621.0;
}

object node:45 {
	name            node_45; // NodeID: 5135470
	phases          C;
	nominal_voltage 7621.0;
}

object node:46 {
	name            node_46; // NodeID: 5136640
	phases          C;
	nominal_voltage 7621.0;
}

object node:47 {
	name            node_47; // NodeID: 5137808
	phases          C;
	nominal_voltage 7621.0;
}

object node:48 {
	name            node_48; // NodeID: 5138972
	phases          C;
	nominal_voltage 7621.0;
}

object node:49 {
	name            node_49; // NodeID: 5140150
	phases          C;
	nominal_voltage 7621.0;
}

object node:50 {
	name            node_50; // NodeID: 5141324
	phases          C;
	nominal_voltage 7621.0;
}

object node:51 {
	name            node_51; // NodeID: 5142491
	phases          C;
	nominal_voltage 7621.0;
}

object node:52 {
	name            node_52; // NodeID: 5119934
	phases          ABC;
	nominal_voltage 7621.0;
}

object node:53 {
	name            node_53; // NodeID: 4940375
	phases          ABC;
	nominal_voltage 7621.0;
}

object node:54 {
	name            node_54; // NodeID: 4941888
	phases          ABC;
	nominal_voltage 7621.0;
}

object node:55 {
	name            node_55; // NodeID: 5715759
	phases          ABC;
	nominal_voltage 7621.0;
}

object node:56 {
	name            node_56; // NodeID: 5729312
	phases          A;
	nominal_voltage 7621.0;
}

object node:57 {
	name            node_57; // NodeID: 5728345
	phases          A;
	nominal_voltage 7621.0;
}

object node:58 {
	name            node_58; // NodeID: 5727397
	phases          A;
	nominal_voltage 7621.0;
}

object node:59 {
	name            node_59; // NodeID: 5727863
	phases          A;
	nominal_voltage 7621.0;
}

object node:60 {
	name            node_60; // NodeID: 4944915
	phases          A;
	nominal_voltage 7621.0;
}

object node:61 {
	name            node_61; // NodeID: 5143653
	phases          A;
	nominal_voltage 7621.0;
}

object node:62 {
	name            node_62; // NodeID: 5144816
	phases          A;
	nominal_voltage 7621.0;
}

object node:63 {
	name            node_63; // NodeID: 5730746
	phases          ABC;
	nominal_voltage 7621.0;
}

object node:64 {
	name            node_64; // NodeID: 5802582
	phases          ABC;
	nominal_voltage 7621.0;
}

object node:66 {
	name            node_66; // NodeID: 5738397
	phases          ABC;
	nominal_voltage 7621.0;
}

object node:67 {
	name            node_67; // NodeID: 5738876
	phases          ABC;
	nominal_voltage 7621.0;
}

object node:68 {
	name            node_68; // NodeID: 5739344
	phases          ABC;
	nominal_voltage 7621.0;
}

object node:69 {
	name            node_69; // NodeID: 5751158
	phases          ABC;
	nominal_voltage 7621.0;
}

object node:70 {
	name            node_70; // NodeID: 5665541
	phases          ABC;
	nominal_voltage 7621.0;
}

object node:71 {
	name            node_71; // NodeID: 5762563
	phases          ABC;
	nominal_voltage 7621.0;
}

object node:72 {
	name            node_72; // NodeID: 5763512
	phases          ABC;
	nominal_voltage 7621.0;
}

object node:73 {
	name            node_73; // NodeID: 5763976
	phases          ABC;
	nominal_voltage 7621.0;
}

object node:74 {
	name            node_74; // NodeID: 5764459
	phases          ABC;
	nominal_voltage 7621.0;
}

object node:75 {
	name            node_75; // NodeID: 5771738
	phases          ABC;
	nominal_voltage 7621.0;
}

object node:76 {
	name            node_76; // NodeID: 5772218
	phases          ABC;
	nominal_voltage 7621.0;
}

object node:77 {
	name            node_77; // NodeID: 5772698
	phases          ABC;
	nominal_voltage 7621.0;
}

object node:78 {
	name            node_78; // NodeID: 5773174
	phases          ABC;
	nominal_voltage 7621.0;
}

object node:79 {
	name            node_79; // NodeID: 5773646
	phases          ABC;
	nominal_voltage 7621.0;
}

object node:80 {
	name            node_80; // NodeID: 5783957
	phases          ABC;
	nominal_voltage 7621.0;
}

object node:81 {
	name            node_81; // NodeID: 5784420
	phases          ABC;
	nominal_voltage 7621.0;
}

object node:82 {
	name            node_82; // NodeID: 5784883
	phases          ABC;
	nominal_voltage 7621.0;
}

object node:83 {
	name            node_83; // NodeID: 5648696
	phases          ABC;
	nominal_voltage 7621.0;
}

object node:84 {
	name            node_84; // NodeID: 5619836
	phases          ABC;
	nominal_voltage 7621.0;
}

object node:85 {
	name            node_85; // NodeID: 5620445
	phases          ABC;
	nominal_voltage 7621.0;
}

object node:86 {
	name            node_86; // NodeID: UID_BBar_5499342
	phases          AC;
	nominal_voltage 7621.0;
}

object node:87 {
	name            node_87; // NodeID: 5621057
	phases          ABC;
	nominal_voltage 7621.0;
}

object node:88 {
	name            node_88; // NodeID: 5621672
	phases          ABC;
	nominal_voltage 7621.0;
}

object node:89 {
	name            node_89; // NodeID: 5622292
	phases          C;
	nominal_voltage 7621.0;
}

object node:90 {
	name            node_90; // NodeID: 5622887
	phases          C;
	nominal_voltage 7621.0;
}

object node:91 {
	name            node_91; // NodeID: 5624724
	phases          C;
	nominal_voltage 7621.0;
}

object node:92 {
	name            node_92; // NodeID: 5649270
	phases          C;
	nominal_voltage 7621.0;
}

object node:93 {
	name            node_93; // NodeID: 5785799
	phases          C;
	nominal_voltage 7621.0;
}

object node:94 {
	name            node_94; // NodeID: 5786264
	phases          C;
	nominal_voltage 7621.0;
}

object node:95 {
	name            node_95; // NodeID: 5774114
	phases          C;
	nominal_voltage 7621.0;
}

object node:96 {
	name            node_96; // NodeID: 5774586
	phases          C;
	nominal_voltage 7621.0;
}

object node:97 {
	name            node_97; // NodeID: 5776472
	phases          C;
	nominal_voltage 7621.0;
}

object node:98 {
	name            node_98; // NodeID: 5779304
	phases          C;
	nominal_voltage 7621.0;
}

object node:99 {
	name            node_99; // NodeID: 8219961
	phases          C;
	nominal_voltage 7621.0;
}

object node:101 {
	name            node_101; // NodeID: 5775055
	phases          C;
	nominal_voltage 7621.0;
}

object node:102 {
	name            node_102; // NodeID: 5775523
	phases          C;
	nominal_voltage 7621.0;
}

object node:103 {
	name            node_103; // NodeID: 5777396
	phases          C;
	nominal_voltage 7621.0;
}

object node:104 {
	name            node_104; // NodeID: 8219945
	phases          C;
	nominal_voltage 7621.0;
}

object node:105 {
	name            node_105; // NodeID: 8236110
	phases          C;
	nominal_voltage 7621.0;
}

object node:106 {
	name            node_106; // NodeID: 5777880
	phases          C;
	nominal_voltage 7621.0;
}

object node:107 {
	name            node_107; // NodeID: 8219949
	phases          C;
	nominal_voltage 7621.0;
}

object node:108 {
	name            node_108; // NodeID: 8236114
	phases          C;
	nominal_voltage 7621.0;
}

object node:109 {
	name            node_109; // NodeID: 5778362
	phases          C;
	nominal_voltage 7621.0;
}

object node:110 {
	name            node_110; // NodeID: 8219952
	phases          C;
	nominal_voltage 7621.0;
}

object node:111 {
	name            node_111; // NodeID: 8236117
	phases          C;
	nominal_voltage 7621.0;
}

object node:112 {
	name            node_112; // NodeID: 5778839
	phases          C;
	nominal_voltage 7621.0;
}

object node:113 {
	name            node_113; // NodeID: 5798179
	phases          C;
	nominal_voltage 7621.0;
}

object node:114 {
	name            node_114; // NodeID: 5764960
	phases          A;
	nominal_voltage 7621.0;
}

object node:115 {
	name            node_115; // NodeID: 5765444
	phases          A;
	nominal_voltage 7621.0;
}

object node:116 {
	name            node_116; // NodeID: 5766418
	phases          A;
	nominal_voltage 7621.0;
}

object node:117 {
	name            node_117; // NodeID: 5766906
	phases          A;
	nominal_voltage 7621.0;
}

object node:118 {
	name            node_118; // NodeID: 5767394
	phases          A;
	nominal_voltage 7621.0;
}

object node:119 {
	name            node_119; // NodeID: 5767876
	phases          A;
	nominal_voltage 7621.0;
}

object node:120 {
	name            node_120; // NodeID: 5768352
	phases          A;
	nominal_voltage 7621.0;
}

object node:121 {
	name            node_121; // NodeID: 5664993
	phases          ABC;
	nominal_voltage 7621.0;
}

object node:122 {
	name            node_122; // NodeID: 5666085
	phases          ABC;
	nominal_voltage 7621.0;
}

object node:123 {
	name            node_123; // NodeID: 5667702
	phases          ABC;
	nominal_voltage 7621.0;
}

object node:124 {
	name            node_124; // NodeID: 5668254
	phases          ABC;
	nominal_voltage 7621.0;
}

object node:125 {
	name            node_125; // NodeID: 5669889
	phases          ABC;
	nominal_voltage 7621.0;
}

object node:126 {
	name            node_126; // NodeID: 5664446
	phases          ABC;
	nominal_voltage 7621.0;
}

object node:127 {
	name            node_127; // NodeID: 5752567
	phases          ABC;
	nominal_voltage 7621.0;
}

object node:128 {
	name            node_128; // NodeID: 5753044
	phases          ABC;
	nominal_voltage 7621.0;
}

object node:129 {
	name            node_129; // NodeID: 5753517
	phases          ABC;
	nominal_voltage 7621.0;
}

object node:130 {
	name            node_130; // NodeID: 5753988
	phases          ABC;
	nominal_voltage 7621.0;
}

object node:131 {
	name            node_131; // NodeID: 5754462
	phases          ABC;
	nominal_voltage 7621.0;
}

object node:132 {
	name            node_132; // NodeID: 8147226
	phases          ABC;
	nominal_voltage 7621.0;
}

object node:133 {
	name            node_133; // NodeID: 8147227
	phases          ABC;
	nominal_voltage 7621.0;
}

object node:134 {
	name            node_134; // NodeID: 5755903
	phases          ABC;
	nominal_voltage 7621.0;
}

object node:135 {
	name            node_135; // NodeID: 5788540
	phases          ABC;
	nominal_voltage 7621.0;
}

object node:136 {
	name            node_136; // NodeID: 5788977
	phases          ABC;
	nominal_voltage 7621.0;
}

object node:137 {
	name            node_137; // NodeID: 5789434
	phases          ABC;
	nominal_voltage 7621.0;
}

object node:138 {
	name            node_138; // NodeID: 5792076
	phases          ABC;
	nominal_voltage 7621.0;
}

object node:139 {
	name            node_139; // NodeID: 5790321
	phases          ABC;
	nominal_voltage 7621.0;
}

object node:140 {
	name            node_140; // NodeID: 5610601
	phases          ABC;
	nominal_voltage 7621.0;
}

object node:141 {
	name            node_141; // NodeID: 5641566
	phases          ABC;
	nominal_voltage 7621.0;
}

object node:142 {
	name            node_142; // NodeID: 5642759
	phases          C;
	nominal_voltage 7621.0;
}

object node:143 {
	name            node_143; // NodeID: 5643372
	phases          C;
	nominal_voltage 7621.0;
}

object node:144 {
	name            node_144; // NodeID: 5644577
	phases          C;
	nominal_voltage 7621.0;
}

object node:145 {
	name            node_145; // NodeID: 5233883
	phases          C;
	nominal_voltage 7621.0;
}

object node:146 {
	name            node_146; // NodeID: 4731871
	phases          C;
	nominal_voltage 7621.0;
}

object node:147 {
	name            node_147; // NodeID: 4329397
	phases          C;
	nominal_voltage 7621.0;
}

object node:148 {
	name            node_148; // NodeID: 4334262
	phases          C;
	nominal_voltage 7621.0;
}

object node:149 {
	name            node_149; // NodeID: 4336684
	phases          C;
	nominal_voltage 7621.0;
}

object node:150 {
	name            node_150; // NodeID: 4339087
	phases          C;
	nominal_voltage 7621.0;
}

object node:151 {
	name            node_151; // NodeID: 4343881
	phases          C;
	nominal_voltage 7621.0;
}

object node:152 {
	name            node_152; // NodeID: 4346268
	phases          C;
	nominal_voltage 7621.0;
}

object node:153 {
	name            node_153; // NodeID: 4348674
	phases          C;
	nominal_voltage 7621.0;
}

object node:154 {
	name            node_154; // NodeID: 4351074
	phases          C;
	nominal_voltage 7621.0;
}

object node:155 {
	name            node_155; // NodeID: 5642157
	phases          ABC;
	nominal_voltage 7621.0;
}

object node:156 {
	name            node_156; // NodeID: 5635606
	phases          ABC;
	nominal_voltage 7621.0;
}

object node:157 {
	name            node_157; // NodeID: 5234961
	phases          ABC;
	nominal_voltage 7621.0;
}

object node:158 {
	name            node_158; // NodeID: 5232811
	phases          ABC;
	nominal_voltage 7621.0;
}

object node:159 {
	name            node_159; // NodeID: 5231745
	phases          ABC;
	nominal_voltage 7621.0;
}

object node:160 {
	name            node_160; // NodeID: 5230672
	phases          ABC;
	nominal_voltage 7621.0;
}

object node:161 {
	name            node_161; // NodeID: 5229601
	phases          ABC;
	nominal_voltage 7621.0;
}

object node:162 {
	name            node_162; // NodeID: 5228522
	phases          ABC;
	nominal_voltage 7621.0;
}

object node:163 {
	name            node_163; // NodeID: 5217551
	phases          ABC;
	nominal_voltage 7621.0;
}

object node:164 {
	name            node_164; // NodeID: 5214233
	phases          ABC;
	nominal_voltage 7621.0;
}

object node:165 {
	name            node_165; // NodeID: 5213126
	phases          ABC;
	nominal_voltage 7621.0;
}

object node:166 {
	name            node_166; // NodeID: 4730014
	phases          ABC;
	nominal_voltage 7621.0;
}

object node:167 {
	name            node_167; // NodeID: 4412410
	phases          ABC;
	nominal_voltage 7621.0;
}

object node:168 {
	name            node_168; // NodeID: 4414740
	phases          ABC;
	nominal_voltage 7621.0;
}

object node:169 {
	name            node_169; // NodeID: 4419364
	phases          ABC;
	nominal_voltage 7621.0;
}

object node:170 {
	name            node_170; // NodeID: 4559916
	phases          B;
	nominal_voltage 7621.0;
}

object node:171 {
	name            node_171; // NodeID: 4562024
	phases          B;
	nominal_voltage 7621.0;
}

object node:172 {
	name            node_172; // NodeID: 4696136
	phases          B;
	nominal_voltage 7621.0;
}

object node:173 {
	name            node_173; // NodeID: 4701835
	phases          B;
	nominal_voltage 7621.0;
}

object node:174 {
	name            node_174; // NodeID: 4744677
	phases          B;
	nominal_voltage 7621.0;
}

object node:175 {
	name            node_175; // NodeID: 8214454
	phases          B;
	nominal_voltage 7621.0;
}

object node:176 {
	name            node_176; // NodeID: 8234309
	phases          B;
	nominal_voltage 7621.0;
}

object node:177 {
	name            node_177; // NodeID: 5429760
	phases          B;
	nominal_voltage 7621.0;
}

object node:178 {
	name            node_178; // NodeID: 8217947
	phases          B;
	nominal_voltage 7621.0;
}

object node:179 {
	name            node_179; // NodeID: 8234317
	phases          B;
	nominal_voltage 7621.0;
}

object node:180 {
	name            node_180; // NodeID: 5430612
	phases          B;
	nominal_voltage 7621.0;
}

object node:181 {
	name            node_181; // NodeID: 5173742
	phases          B;
	nominal_voltage 7621.0;
}

object node:182 {
	name            node_182; // NodeID: 4694227
	phases          B;
	nominal_voltage 7621.0;
}

object node:183 {
	name            node_183; // NodeID: 4698031
	phases          B;
	nominal_voltage 7621.0;
}

object node:184 {
	name            node_184; // NodeID: 4746511
	phases          B;
	nominal_voltage 7621.0;
}

object node:185 {
	name            node_185; // NodeID: 5172585
	phases          B;
	nominal_voltage 7621.0;
}

object node:186 {
	name            node_186; // NodeID: 8216618
	phases          B;
	nominal_voltage 7621.0;
}

object node:188 {
	name            node_188; // NodeID: 4557813
	phases          ABC;
	nominal_voltage 7621.0;
}

object node:189 {
	name            node_189; // NodeID: 4423963
	phases          ABC;
	nominal_voltage 7621.0;
}

object node:190 {
	name            node_190; // NodeID: 4426263
	phases          ABC;
	nominal_voltage 7621.0;
}

object node:191 {
	name            node_191; // NodeID: 4428554
	phases          ABC;
	nominal_voltage 7621.0;
}

object node:192 {
	name            node_192; // NodeID: 4433133
	phases          ABC;
	nominal_voltage 7621.0;
}

object node:193 {
	name            node_193; // NodeID: 4501313
	phases          A;
	nominal_voltage 7621.0;
}

object node:194 {
	name            node_194; // NodeID: 4503540
	phases          A;
	nominal_voltage 7621.0;
}

object node:195 {
	name            node_195; // NodeID: 4507994
	phases          A;
	nominal_voltage 7621.0;
}

object node:196 {
	name            node_196; // NodeID: 4510201
	phases          A;
	nominal_voltage 7621.0;
}

object node:197 {
	name            node_197; // NodeID: 4512410
	phases          A;
	nominal_voltage 7621.0;
}

object node:198 {
	name            node_198; // NodeID: 4516815
	phases          A;
	nominal_voltage 7621.0;
}

object node:199 {
	name            node_199; // NodeID: 3352671
	phases          A;
	nominal_voltage 7621.0;
}

object node:200 {
	name            node_200; // NodeID: 3364359
	phases          A;
	nominal_voltage 7621.0;
}

object node:201 {
	name            node_201; // NodeID: 3368227
	phases          A;
	nominal_voltage 7621.0;
}

object node:202 {
	name            node_202; // NodeID: 3387489
	phases          A;
	nominal_voltage 7621.0;
}

object node:203 {
	name            node_203; // NodeID: 4348673
	phases          A;
	nominal_voltage 7621.0;
}

object node:204 {
	name            node_204; // NodeID: 8206849
	phases          A;
	nominal_voltage 7621.0;
}

object node:205 {
	name            node_205; // NodeID: 8230174
	phases          A;
	nominal_voltage 7621.0;
}

object node:206 {
	name            node_206; // NodeID: 4363029
	phases          A;
	nominal_voltage 7621.0;
}

object node:207 {
	name            node_207; // NodeID: 4370172
	phases          A;
	nominal_voltage 7621.0;
}

object node:208 {
	name            node_208; // NodeID: 3360474
	phases          A;
	nominal_voltage 7621.0;
}

object node:209 {
	name            node_209; // NodeID: 3375953
	phases          A;
	nominal_voltage 7621.0;
}

object node:210 {
	name            node_210; // NodeID: 3383663
	phases          A;
	nominal_voltage 7621.0;
}

object node:211 {
	name            node_211; // NodeID: 4319634
	phases          A;
	nominal_voltage 7621.0;
}

object node:212 {
	name            node_212; // NodeID: 8213111
	phases          A;
	nominal_voltage 7621.0;
}

object node:213 {
	name            node_213; // NodeID: 8230106
	phases          A;
	nominal_voltage 7621.0;
}

object node:214 {
	name            node_214; // NodeID: 4336683
	phases          A;
	nominal_voltage 7621.0;
}

object node:215 {
	name            node_215; // NodeID: 4339086
	phases          A;
	nominal_voltage 7621.0;
}

object node:216 {
	name            node_216; // NodeID: 4341493
	phases          A;
	nominal_voltage 7621.0;
}

object node:217 {
	name            node_217; // NodeID: 8213192
	phases          A;
	nominal_voltage 7621.0;
}

object node:219 {
	name            node_219; // NodeID: 4435439
	phases          ABC;
	nominal_voltage 7621.0;
}

object node:220 {
	name            node_220; // NodeID: 4437729
	phases          ABC;
	nominal_voltage 7621.0;
}

object node:221 {
	name            node_221; // NodeID: 4440044
	phases          ABC;
	nominal_voltage 7621.0;
}

object node:222 {
	name            node_222; // NodeID: 4474350
	phases          ABC;
	nominal_voltage 7621.0;
}

object node:223 {
	name            node_223; // NodeID: 5466919
	phases          ABC;
	nominal_voltage 7621.0;
}

object node:224 {
	name            node_224; // NodeID: 5465215
	phases          ABC;
	nominal_voltage 7621.0;
}

object node:225 {
	name            node_225; // NodeID: 5180590
	phases          ABC;
	nominal_voltage 7621.0;
}

object node:226 {
	name            node_226; // NodeID: 5187384
	phases          ABC;
	nominal_voltage 7621.0;
}

object node:227 {
	name            node_227; // NodeID: 5189651
	phases          ABC;
	nominal_voltage 7621.0;
}

object node:228 {
	name            node_228; // NodeID: 5216436
	phases          B;
	nominal_voltage 7621.0;
}

object node:229 {
	name            node_229; // NodeID: 5218667
	phases          B;
	nominal_voltage 7621.0;
}

object node:230 {
	name            node_230; // NodeID: 5215325
	phases          B;
	nominal_voltage 7621.0;
}

object node:231 {
	name            node_231; // NodeID: 5220869
	phases          B;
	nominal_voltage 7621.0;
}

object node:232 {
	name            node_232; // NodeID: 5221973
	phases          B;
	nominal_voltage 7621.0;
}

object node:233 {
	name            node_233; // NodeID: 5226356
	phases          B;
	nominal_voltage 7621.0;
}

object node:234 {
	name            node_234; // NodeID: 5227447
	phases          B;
	nominal_voltage 7621.0;
}

object node:235 {
	name            node_235; // NodeID: 5223059
	phases          B;
	nominal_voltage 7621.0;
}

object node:236 {
	name            node_236; // NodeID: 5224163
	phases          B;
	nominal_voltage 7621.0;
}

object node:237 {
	name            node_237; // NodeID: 5225255
	phases          B;
	nominal_voltage 7621.0;
}

object node:238 {
	name            node_238; // NodeID: 6335970
	phases          ABC;
	nominal_voltage 7621.0;
}

object node:239 {
	name            node_239; // NodeID: 6335982
	phases          ABC;
	nominal_voltage 7621.0;
}

object node:240 {
	name            node_240; // NodeID: 6336016
	phases          ABC;
	nominal_voltage 7621.0;
}

object node:241 {
	name            node_241; // NodeID: 5276010
	phases          ABC;
	nominal_voltage 7621.0;
}

object node:242 {
	name            node_242; // NodeID: 5277083
	phases          ABC;
	nominal_voltage 7621.0;
}

object node:243 {
	name            node_243; // NodeID: 5282475
	phases          ABC;
	nominal_voltage 7621.0;
}

object node:244 {
	name            node_244; // NodeID: 5283540
	phases          ABC;
	nominal_voltage 7621.0;
}

object node:245 {
	name            node_245; // NodeID: 5285676
	phases          ABC;
	nominal_voltage 7621.0;
}

object node:246 {
	name            node_246; // NodeID: 5287822
	phases          ABC;
	nominal_voltage 7621.0;
}

object node:247 {
	name            node_247; // NodeID: 5324172
	phases          ABC;
	nominal_voltage 7621.0;
}

object node:248 {
	name            node_248; // NodeID: 5322146
	phases          ABC;
	nominal_voltage 7621.0;
}

object node:249 {
	name            node_249; // NodeID: 5321114
	phases          ABC;
	nominal_voltage 7621.0;
}

object node:250 {
	name            node_250; // NodeID: 5320100
	phases          ABC;
	nominal_voltage 7621.0;
}

object node:251 {
	name            node_251; // NodeID: 5319087
	phases          ABC;
	nominal_voltage 7621.0;
}

object node:252 {
	name            node_252; // NodeID: 5318062
	phases          ABC;
	nominal_voltage 7621.0;
}

object node:253 {
	name            node_253; // NodeID: 5317046
	phases          ABC;
	nominal_voltage 7621.0;
}

object node:254 {
	name            node_254; // NodeID: 5316017
	phases          ABC;
	nominal_voltage 7621.0;
}

object node:255 {
	name            node_255; // NodeID: 5314996
	phases          ABC;
	nominal_voltage 7621.0;
}

object node:256 {
	name            node_256; // NodeID: 5313963
	phases          ABC;
	nominal_voltage 7621.0;
}

object node:257 {
	name            node_257; // NodeID: 5312926
	phases          ABC;
	nominal_voltage 7621.0;
}

object node:258 {
	name            node_258; // NodeID: 5311895
	phases          ABC;
	nominal_voltage 7621.0;
}

object node:259 {
	name            node_259; // NodeID: 5310861
	phases          ABC;
	nominal_voltage 7621.0;
}

object node:260 {
	name            node_260; // NodeID: 5325179
	phases          B;
	nominal_voltage 7621.0;
}

object node:261 {
	name            node_261; // NodeID: 5374303
	phases          B;
	nominal_voltage 7621.0;
}

object node:262 {
	name            node_262; // NodeID: 5373356
	phases          B;
	nominal_voltage 7621.0;
}

object node:263 {
	name            node_263; // NodeID: 5372394
	phases          B;
	nominal_voltage 7621.0;
}

object node:264 {
	name            node_264; // NodeID: 5371427
	phases          B;
	nominal_voltage 7621.0;
}

object node:265 {
	name            node_265; // NodeID: 5370469
	phases          B;
	nominal_voltage 7621.0;
}

object node:266 {
	name            node_266; // NodeID: 5369517
	phases          B;
	nominal_voltage 7621.0;
}

object node:267 {
	name            node_267; // NodeID: 5368556
	phases          B;
	nominal_voltage 7621.0;
}

object node:268 {
	name            node_268; // NodeID: 5367602
	phases          B;
	nominal_voltage 7621.0;
}

object node:269 {
	name            node_269; // NodeID: 5366637
	phases          B;
	nominal_voltage 7621.0;
}

object node:270 {
	name            node_270; // NodeID: 5365669
	phases          B;
	nominal_voltage 7621.0;
}

object node:271 {
	name            node_271; // NodeID: 5364711
	phases          B;
	nominal_voltage 7621.0;
}

object node:272 {
	name            node_272; // NodeID: 5363737
	phases          B;
	nominal_voltage 7621.0;
}

object node:273 {
	name            node_273; // NodeID: 5362781
	phases          B;
	nominal_voltage 7621.0;
}

object node:274 {
	name            node_274; // NodeID: 5358881
	phases          B;
	nominal_voltage 7621.0;
}

object node:275 {
	name            node_275; // NodeID: 5356937
	phases          B;
	nominal_voltage 7621.0;
}

object node:276 {
	name            node_276; // NodeID: 5355967
	phases          B;
	nominal_voltage 7621.0;
}

object node:277 {
	name            node_277; // NodeID: 5355008
	phases          B;
	nominal_voltage 7621.0;
}

object node:278 {
	name            node_278; // NodeID: 5354046
	phases          B;
	nominal_voltage 7621.0;
}

object node:279 {
	name            node_279; // NodeID: 5353073
	phases          B;
	nominal_voltage 7621.0;
}

object node:280 {
	name            node_280; // NodeID: 5352079
	phases          B;
	nominal_voltage 7621.0;
}

object node:281 {
	name            node_281; // NodeID: 5351082
	phases          B;
	nominal_voltage 7621.0;
}

object node:282 {
	name            node_282; // NodeID: 4737370
	phases          B;
	nominal_voltage 7621.0;
}

object node:283 {
	name            node_283; // NodeID: 5309831
	phases          ABC;
	nominal_voltage 7621.0;
}

object node:284 {
	name            node_284; // NodeID: 5308808
	phases          ABC;
	nominal_voltage 7621.0;
}

object node:285 {
	name            node_285; // NodeID: 5307774
	phases          ABC;
	nominal_voltage 7621.0;
}

object node:286 {
	name            node_286; // NodeID: 5306726
	phases          ABC;
	nominal_voltage 7621.0;
}

object node:287 {
	name            node_287; // NodeID: 5305682
	phases          ABC;
	nominal_voltage 7621.0;
}

object node:288 {
	name            node_288; // NodeID: 5304646
	phases          ABC;
	nominal_voltage 7621.0;
}

object node:289 {
	name            node_289; // NodeID: 5303601
	phases          ABC;
	nominal_voltage 7621.0;
}

object node:290 {
	name            node_290; // NodeID: 5302551
	phases          ABC;
	nominal_voltage 7621.0;
}

object node:291 {
	name            node_291; // NodeID: 5301503
	phases          ABC;
	nominal_voltage 7621.0;
}

object node:292 {
	name            node_292; // NodeID: 5300460
	phases          ABC;
	nominal_voltage 7621.0;
}

object node:293 {
	name            node_293; // NodeID: 5269534
	phases          ABC;
	nominal_voltage 7621.0;
}

object node:294 {
	name            node_294; // NodeID: 4503538
	phases          ABC;
	nominal_voltage 7621.0;
}

object node:295 {
	name            node_295; // NodeID: 4309826
	phases          B;
	nominal_voltage 7621.0;
}

object node:296 {
	name            node_296; // NodeID: 4312282
	phases          B;
	nominal_voltage 7621.0;
}

object node:297 {
	name            node_297; // NodeID: 4317188
	phases          B;
	nominal_voltage 7621.0;
}

object node:298 {
	name            node_298; // NodeID: 4319633
	phases          B;
	nominal_voltage 7621.0;
}

object node:299 {
	name            node_299; // NodeID: 4353482
	phases          B;
	nominal_voltage 7621.0;
}

object node:300 {
	name            node_300; // NodeID: 4355871
	phases          B;
	nominal_voltage 7621.0;
}

object node:301 {
	name            node_301; // NodeID: 4358265
	phases          B;
	nominal_voltage 7621.0;
}

object node:302 {
	name            node_302; // NodeID: 4360638
	phases          B;
	nominal_voltage 7621.0;
}

object node:303 {
	name            node_303; // NodeID: 4363028
	phases          B;
	nominal_voltage 7621.0;
}

object node:304 {
	name            node_304; // NodeID: 4365410
	phases          B;
	nominal_voltage 7621.0;
}

object node:305 {
	name            node_305; // NodeID: 4367797
	phases          B;
	nominal_voltage 7621.0;
}

object node:306 {
	name            node_306; // NodeID: 4322086
	phases          B;
	nominal_voltage 7621.0;
}

object node:307 {
	name            node_307; // NodeID: 4324523
	phases          B;
	nominal_voltage 7621.0;
}

object node:308 {
	name            node_308; // NodeID: 4329395
	phases          B;
	nominal_voltage 7621.0;
}

object node:309 {
	name            node_309; // NodeID: 4331833
	phases          B;
	nominal_voltage 7621.0;
}

object node:310 {
	name            node_310; // NodeID: 4334261
	phases          B;
	nominal_voltage 7621.0;
}

object node:311 {
	name            node_311; // NodeID: 4336682
	phases          B;
	nominal_voltage 7621.0;
}

object node:312 {
	name            node_312; // NodeID: 4339085
	phases          B;
	nominal_voltage 7621.0;
}

object node:313 {
	name            node_313; // NodeID: 4341492
	phases          B;
	nominal_voltage 7621.0;
}

object node:314 {
	name            node_314; // NodeID: 4343879
	phases          B;
	nominal_voltage 7621.0;
}

object node:315 {
	name            node_315; // NodeID: 4346266
	phases          B;
	nominal_voltage 7621.0;
}

object node:316 {
	name            node_316; // NodeID: 4348672
	phases          B;
	nominal_voltage 7621.0;
}

object node:317 {
	name            node_317; // NodeID: 4351073
	phases          B;
	nominal_voltage 7621.0;
}

object node:318 {
	name            node_318; // NodeID: 4377276
	phases          B;
	nominal_voltage 7621.0;
}

object node:319 {
	name            node_319; // NodeID: 4379663
	phases          B;
	nominal_voltage 7621.0;
}

object node:320 {
	name            node_320; // NodeID: 4370171
	phases          B;
	nominal_voltage 7621.0;
}

object node:321 {
	name            node_321; // NodeID: 4372549
	phases          B;
	nominal_voltage 7621.0;
}

object node:322 {
	name            node_322; // NodeID: 4374913
	phases          B;
	nominal_voltage 7621.0;
}

object node:323 {
	name            node_323; // NodeID: 5891001
	phases          ABC;
	nominal_voltage 7621.0;
}

object node:324 {
	name            node_324; // NodeID: 5893165
	phases          ABC;
	nominal_voltage 7621.0;
}

object node:325 {
	name            node_325; // NodeID: 5893519
	phases          ABC;
	nominal_voltage 7621.0;
}

object node:326 {
	name            node_326; // NodeID: 5894247
	phases          ABC;
	nominal_voltage 7621.0;
}

object node:327 {
	name            node_327; // NodeID: 5895323
	phases          ABC;
	nominal_voltage 7621.0;
}

object node:328 {
	name            node_328; // NodeID: 5895680
	phases          ABC;
	nominal_voltage 7621.0;
}

object node:329 {
	name            node_329; // NodeID: 5897501
	phases          ABC;
	nominal_voltage 7621.0;
}

object node:330 {
	name            node_330; // NodeID: 5897880
	phases          ABC;
	nominal_voltage 7621.0;
}

object node:331 {
	name            node_331; // NodeID: 5898251
	phases          ABC;
	nominal_voltage 7621.0;
}

object node:332 {
	name            node_332; // NodeID: 5900079
	phases          ABC;
	nominal_voltage 7621.0;
}

object node:333 {
	name            node_333; // NodeID: 5900448
	phases          ABC;
	nominal_voltage 7621.0;
}

object node:334 {
	name            node_334; // NodeID: 5903275
	phases          ABC;
	nominal_voltage 7621.0;
}

object node:335 {
	name            node_335; // NodeID: 5903633
	phases          ABC;
	nominal_voltage 7621.0;
}

object node:336 {
	name            node_336; // NodeID: 5903992
	phases          ABC;
	nominal_voltage 7621.0;
}

object node:337 {
	name            node_337; // NodeID: 5911711
	phases          ABC;
	nominal_voltage 7621.0;
}

object node:338 {
	name            node_338; // NodeID: UID_BBar_5853546
	phases          AC;
	nominal_voltage 7621.0;
}

object node:339 {
	name            node_339; // NodeID: 5912050
	phases          ABC;
	nominal_voltage 7621.0;
}

object node:340 {
	name            node_340; // NodeID: 5912401
	phases          ABC;
	nominal_voltage 7621.0;
}

object node:341 {
	name            node_341; // NodeID: 5912747
	phases          ABC;
	nominal_voltage 7621.0;
}

object node:342 {
	name            node_342; // NodeID: 5913093
	phases          ABC;
	nominal_voltage 7621.0;
}

object node:343 {
	name            node_343; // NodeID: 5913438
	phases          ABC;
	nominal_voltage 7621.0;
}

object node:344 {
	name            node_344; // NodeID: 5913782
	phases          ABC;
	nominal_voltage 7621.0;
}

object node:345 {
	name            node_345; // NodeID: 5914127
	phases          ABC;
	nominal_voltage 7621.0;
}

object node:346 {
	name            node_346; // NodeID: 5914477
	phases          ABC;
	nominal_voltage 7621.0;
}

object node:347 {
	name            node_347; // NodeID: 5917174
	phases          ABC;
	nominal_voltage 7621.0;
}

object node:348 {
	name            node_348; // NodeID: 5917519
	phases          ABC;
	nominal_voltage 7621.0;
}

object node:349 {
	name            node_349; // NodeID: 5917867
	phases          ABC;
	nominal_voltage 7621.0;
}

object node:350 {
	name            node_350; // NodeID: 5922610
	phases          ABC;
	nominal_voltage 7621.0;
}

object node:351 {
	name            node_351; // NodeID: 5922943
	phases          ABC;
	nominal_voltage 7621.0;
}

object node:352 {
	name            node_352; // NodeID: 5923265
	phases          ABC;
	nominal_voltage 7621.0;
}

object node:353 {
	name            node_353; // NodeID: 5961516
	phases          ABC;
	nominal_voltage 7621.0;
}

object node:354 {
	name            node_354; // NodeID: 5960969
	phases          B;
	nominal_voltage 7621.0;
}

object node:355 {
	name            node_355; // NodeID: 5960388
	phases          B;
	nominal_voltage 7621.0;
}

object node:356 {
	name            node_356; // NodeID: 5932723
	phases          B;
	nominal_voltage 7621.0;
}

object node:357 {
	name            node_357; // NodeID: 5933055
	phases          B;
	nominal_voltage 7621.0;
}

object node:358 {
	name            node_358; // NodeID: 5933379
	phases          B;
	nominal_voltage 7621.0;
}

object node:359 {
	name            node_359; // NodeID: 5933706
	phases          B;
	nominal_voltage 7621.0;
}

object node:360 {
	name            node_360; // NodeID: 5892809
	phases          B;
	nominal_voltage 7621.0;
}

object node:361 {
	name            node_361; // NodeID: 4901577
	phases          B;
	nominal_voltage 7621.0;
}

object node:362 {
	name            node_362; // NodeID: 4903142
	phases          B;
	nominal_voltage 7621.0;
}

object node:363 {
	name            node_363; // NodeID: 4904715
	phases          B;
	nominal_voltage 7621.0;
}

object node:364 {
	name            node_364; // NodeID: 4906270
	phases          B;
	nominal_voltage 7621.0;
}

object node:365 {
	name            node_365; // NodeID: 4907839
	phases          B;
	nominal_voltage 7621.0;
}

object node:366 {
	name            node_366; // NodeID: 4909414
	phases          B;
	nominal_voltage 7621.0;
}

object node:367 {
	name            node_367; // NodeID: 4910973
	phases          B;
	nominal_voltage 7621.0;
}

object node:368 {
	name            node_368; // NodeID: 4912529
	phases          B;
	nominal_voltage 7621.0;
}

object node:369 {
	name            node_369; // NodeID: 4914106
	phases          B;
	nominal_voltage 7621.0;
}

object node:370 {
	name            node_370; // NodeID: 5892445
	phases          B;
	nominal_voltage 7621.0;
}

object node:371 {
	name            node_371; // NodeID: 5934035
	phases          B;
	nominal_voltage 7621.0;
}

object node:372 {
	name            node_372; // NodeID: 5934376
	phases          B;
	nominal_voltage 7621.0;
}

object node:373 {
	name            node_373; // NodeID: 5934706
	phases          B;
	nominal_voltage 7621.0;
}

object node:374 {
	name            node_374; // NodeID: 5935026
	phases          B;
	nominal_voltage 7621.0;
}

object node:375 {
	name            node_375; // NodeID: 5935338
	phases          B;
	nominal_voltage 7621.0;
}

object node:376 {
	name            node_376; // NodeID: 5935651
	phases          B;
	nominal_voltage 7621.0;
}

object node:377 {
	name            node_377; // NodeID: 5891713
	phases          B;
	nominal_voltage 7621.0;
}

object node:378 {
	name            node_378; // NodeID: 5935974
	phases          B;
	nominal_voltage 7621.0;
}

object node:379 {
	name            node_379; // NodeID: 5936611
	phases          B;
	nominal_voltage 7621.0;
}

object node:380 {
	name            node_380; // NodeID: 5937567
	phases          B;
	nominal_voltage 7621.0;
}

object node:381 {
	name            node_381; // NodeID: 5939179
	phases          B;
	nominal_voltage 7621.0;
}

object node:382 {
	name            node_382; // NodeID: 8221141
	phases          B;
	nominal_voltage 7621.0;
}

object node:384 {
	name            node_384; // NodeID: 5936291
	phases          B;
	nominal_voltage 7621.0;
}

object node:385 {
	name            node_385; // NodeID: 5936930
	phases          B;
	nominal_voltage 7621.0;
}

object node:386 {
	name            node_386; // NodeID: 5938220
	phases          B;
	nominal_voltage 7621.0;
}

object node:387 {
	name            node_387; // NodeID: 8221136
	phases          B;
	nominal_voltage 7621.0;
}

object node:388 {
	name            node_388; // NodeID: 8237163
	phases          B;
	nominal_voltage 7621.0;
}

object node:389 {
	name            node_389; // NodeID: 5938539
	phases          B;
	nominal_voltage 7621.0;
}

object node:390 {
	name            node_390; // NodeID: 5938862
	phases          B;
	nominal_voltage 7621.0;
}

object node:391 {
	name            node_391; // NodeID: 5892081
	phases          B;
	nominal_voltage 7621.0;
}

object node:392 {
	name            node_392; // NodeID: 4780810
	phases          B;
	nominal_voltage 7621.0;
}

object node:393 {
	name            node_393; // NodeID: 4782595
	phases          B;
	nominal_voltage 7621.0;
}

object node:394 {
	name            node_394; // NodeID: 4784391
	phases          B;
	nominal_voltage 7621.0;
}

object node:395 {
	name            node_395; // NodeID: 4786165
	phases          B;
	nominal_voltage 7621.0;
}

object node:396 {
	name            node_396; // NodeID: 4787934
	phases          B;
	nominal_voltage 7621.0;
}

object node:397 {
	name            node_397; // NodeID: 4791463
	phases          B;
	nominal_voltage 7621.0;
}

object node:398 {
	name            node_398; // NodeID: 4793213
	phases          B;
	nominal_voltage 7621.0;
}

object node:399 {
	name            node_399; // NodeID: 4794973
	phases          B;
	nominal_voltage 7621.0;
}

object node:400 {
	name            node_400; // NodeID: 4796714
	phases          B;
	nominal_voltage 7621.0;
}

object node:401 {
	name            node_401; // NodeID: 4798465
	phases          B;
	nominal_voltage 7621.0;
}

object node:402 {
	name            node_402; // NodeID: 4800222
	phases          B;
	nominal_voltage 7621.0;
}

object node:403 {
	name            node_403; // NodeID: 4801951
	phases          B;
	nominal_voltage 7621.0;
}

object node:404 {
	name            node_404; // NodeID: 4805443
	phases          B;
	nominal_voltage 7621.0;
}

object node:405 {
	name            node_405; // NodeID: 4807178
	phases          B;
	nominal_voltage 7621.0;
}

object node:406 {
	name            node_406; // NodeID: 4803695
	phases          B;
	nominal_voltage 7621.0;
}

object node:407 {
	name            node_407; // NodeID: 4819248
	phases          B;
	nominal_voltage 7621.0;
}

object node:408 {
	name            node_408; // NodeID: 4820990
	phases          B;
	nominal_voltage 7621.0;
}

object node:409 {
	name            node_409; // NodeID: 4822731
	phases          B;
	nominal_voltage 7621.0;
}

object node:410 {
	name            node_410; // NodeID: 4826180
	phases          B;
	nominal_voltage 7621.0;
}

object node:411 {
	name            node_411; // NodeID: 4827886
	phases          B;
	nominal_voltage 7621.0;
}

object node:412 {
	name            node_412; // NodeID: 4824476
	phases          B;
	nominal_voltage 7621.0;
}

object node:413 {
	name            node_413; // NodeID: 4833050
	phases          B;
	nominal_voltage 7621.0;
}

object node:414 {
	name            node_414; // NodeID: 4834759
	phases          B;
	nominal_voltage 7621.0;
}

object node:415 {
	name            node_415; // NodeID: 4836462
	phases          B;
	nominal_voltage 7621.0;
}

object node:416 {
	name            node_416; // NodeID: 4773678
	phases          B;
	nominal_voltage 7621.0;
}

object node:417 {
	name            node_417; // NodeID: 4777237
	phases          B;
	nominal_voltage 7621.0;
}

object node:418 {
	name            node_418; // NodeID: 4779024
	phases          B;
	nominal_voltage 7621.0;
}

object node:419 {
	name            node_419; // NodeID: 4775462
	phases          B;
	nominal_voltage 7621.0;
}

object node:420 {
	name            node_420; // NodeID: 4940267
	phases          B;
	nominal_voltage 7621.0;
}

object node:421 {
	name            node_421; // NodeID: 5337114
	phases          B;
	nominal_voltage 7621.0;
}

object node:422 {
	name            node_422; // NodeID: 5338109
	phases          B;
	nominal_voltage 7621.0;
}

object node:423 {
	name            node_423; // NodeID: 5485817
	phases          B;
	nominal_voltage 7621.0;
}

object node:425 {
	name            node_425; // NodeID: 5334137
	phases          B;
	nominal_voltage 7621.0;
}

object node:426 {
	name            node_426; // NodeID: 5335132
	phases          B;
	nominal_voltage 7621.0;
}

object node:427 {
	name            node_427; // NodeID: 5340076
	phases          B;
	nominal_voltage 7621.0;
}

object node:428 {
	name            node_428; // NodeID: 8217476
	phases          B;
	nominal_voltage 7621.0;
}

object node:429 {
	name            node_429; // NodeID: 5323150
	phases          ABC;
	nominal_voltage 7621.0;
}

object node:430 {
	name            node_430; // NodeID: 5447168
	phases          ABC;
	nominal_voltage 7621.0;
}

object node:431 {
	name            node_431; // NodeID: 6896422
	phases          ABC;
	nominal_voltage 7621.0;
}

object node:432 {
	name            node_432; // NodeID: 5326183
	phases          ABC;
	nominal_voltage 7621.0;
}

object node:433 {
	name            node_433; // NodeID: 5327185
	phases          ABC;
	nominal_voltage 7621.0;
}

object node:434 {
	name            node_434; // NodeID: 5330179
	phases          ABC;
	nominal_voltage 7621.0;
}

object node:435 {
	name            node_435; // NodeID: 5332160
	phases          A;
	nominal_voltage 7621.0;
}

object node:436 {
	name            node_436; // NodeID: 5333132
	phases          A;
	nominal_voltage 7621.0;
}

object node:437 {
	name            node_437; // NodeID: 5335133
	phases          A;
	nominal_voltage 7621.0;
}

object node:438 {
	name            node_438; // NodeID: 5336123
	phases          A;
	nominal_voltage 7621.0;
}

object node:439 {
	name            node_439; // NodeID: 5338110
	phases          A;
	nominal_voltage 7621.0;
}

object node:440 {
	name            node_440; // NodeID: 5342082
	phases          A;
	nominal_voltage 7621.0;
}

object node:441 {
	name            node_441; // NodeID: 5962608
	phases          A;
	nominal_voltage 7621.0;
}

object node:442 {
	name            node_442; // NodeID: 8221304
	phases          A;
	nominal_voltage 7621.0;
}

object node:444 {
	name            node_444; // NodeID: 5317043
	phases          A;
	nominal_voltage 7621.0;
}

object node:445 {
	name            node_445; // NodeID: 8217340
	phases          A;
	nominal_voltage 7621.0;
}

object node:446 {
	name            node_446; // NodeID: 8233790
	phases          A;
	nominal_voltage 7621.0;
}

object node:447 {
	name            node_447; // NodeID: 5316014
	phases          A;
	nominal_voltage 7621.0;
}

object node:448 {
	name            node_448; // NodeID: 8217334
	phases          A;
	nominal_voltage 7621.0;
}

object node:449 {
	name            node_449; // NodeID: 8237310
	phases          A;
	nominal_voltage 7621.0;
}

object node:450 {
	name            node_450; // NodeID: 5962061
	phases          A;
	nominal_voltage 7621.0;
}

object node:451 {
	name            node_451; // NodeID: 5962339
	phases          A;
	nominal_voltage 7621.0;
}

object node:452 {
	name            node_452; // NodeID: 5337115
	phases          A;
	nominal_voltage 7621.0;
}

object node:453 {
	name            node_453; // NodeID: 5340077
	phases          A;
	nominal_voltage 7621.0;
}

object node:454 {
	name            node_454; // NodeID: 5343074
	phases          A;
	nominal_voltage 7621.0;
}

object node:455 {
	name            node_455; // NodeID: 5320097
	phases          A;
	nominal_voltage 7621.0;
}

object node:456 {
	name            node_456; // NodeID: 8217353
	phases          A;
	nominal_voltage 7621.0;
}

object node:457 {
	name            node_457; // NodeID: 8225613
	phases          A;
	nominal_voltage 7621.0;
}

object node:458 {
	name            node_458; // NodeID: 5321111
	phases          A;
	nominal_voltage 7621.0;
}

object node:459 {
	name            node_459; // NodeID: 5190772
	phases          A;
	nominal_voltage 7621.0;
}

object node:461 {
	name            node_461; // NodeID: 5322143
	phases          A;
	nominal_voltage 7621.0;
}

object node:462 {
	name            node_462; // NodeID: 8217361
	phases          A;
	nominal_voltage 7621.0;
}

object node:463 {
	name            node_463; // NodeID: 5331174
	phases          ABC;
	nominal_voltage 7621.0;
}

object node:464 {
	name            node_464; // NodeID: 5193020
	phases          ABC;
	nominal_voltage 7621.0;
}

object node:465 {
	name            node_465; // NodeID: 5194129
	phases          ABC;
	nominal_voltage 7621.0;
}

object node:466 {
	name            node_466; // NodeID: 5196380
	phases          ABC;
	nominal_voltage 7621.0;
}

object node:467 {
	name            node_467; // NodeID: 5197501
	phases          ABC;
	nominal_voltage 7621.0;
}

object node:468 {
	name            node_468; // NodeID: 9012141
	phases          ABC;
	nominal_voltage 7621.0;
}

object node:469 {
	name            node_469; // NodeID: 9012151
	phases          ABC;
	nominal_voltage 7621.0;
}

object node:471 {
	name            node_471; // NodeID: 9012142
	phases          ABC;
	nominal_voltage 7621.0;
}

object node:472 {
	name            node_472; // NodeID: 9012084
	phases          ABC;
	nominal_voltage 7621.0;
}

object node:473 {
	name            node_473; // NodeID: 9012080
	phases          ABC;
	nominal_voltage 7621.0;
}

object node:474 {
	name            node_474; // NodeID: 5254346
	phases          ABC;
	nominal_voltage 7621.0;
}

object node:475 {
	name            node_475; // NodeID: 9012081
	phases          ABC;
	nominal_voltage 7621.0;
}

object node:476 {
	name            node_476; // NodeID: 9012138
	phases          ABC;
	nominal_voltage 7621.0;
}

object node:477 {
	name            node_477; // NodeID: 9012143
	phases          ABC;
	nominal_voltage 7621.0;
}

object node:478 {
	name            node_478; // NodeID: 9012155
	phases          ABC;
	nominal_voltage 7621.0;
}

object node:479 {
	name            node_479; // NodeID: 9012144
	phases          ABC;
	nominal_voltage 7621.0;
}

object node:480 {
	name            node_480; // NodeID: 5257610
	phases          ABC;
	nominal_voltage 7621.0;
}

object node:481 {
	name            node_481; // NodeID: 5258686
	phases          ABC;
	nominal_voltage 7621.0;
}

object node:482 {
	name            node_482; // NodeID: 5276006
	phases          C;
	nominal_voltage 7621.0;
}

object node:483 {
	name            node_483; // NodeID: 5277079
	phases          C;
	nominal_voltage 7621.0;
}

object node:484 {
	name            node_484; // NodeID: 5279246
	phases          C;
	nominal_voltage 7621.0;
}

object node:485 {
	name            node_485; // NodeID: 5280332
	phases          C;
	nominal_voltage 7621.0;
}

object node:486 {
	name            node_486; // NodeID: 5282471
	phases          C;
	nominal_voltage 7621.0;
}

object node:487 {
	name            node_487; // NodeID: 5283536
	phases          C;
	nominal_voltage 7621.0;
}

object node:488 {
	name            node_488; // NodeID: 5284599
	phases          C;
	nominal_voltage 7621.0;
}

object node:489 {
	name            node_489; // NodeID: 5285672
	phases          C;
	nominal_voltage 7621.0;
}

object node:490 {
	name            node_490; // NodeID: 5281404
	phases          C;
	nominal_voltage 7621.0;
}

object node:491 {
	name            node_491; // NodeID: 5142384
	phases          C;
	nominal_voltage 7621.0;
}

object node:492 {
	name            node_492; // NodeID: 5148242
	phases          C;
	nominal_voltage 7621.0;
}

object node:493 {
	name            node_493; // NodeID: 5147062
	phases          C;
	nominal_voltage 7621.0;
}

object node:494 {
	name            node_494; // NodeID: 5286744
	phases          C;
	nominal_voltage 7621.0;
}

object node:495 {
	name            node_495; // NodeID: 5287818
	phases          C;
	nominal_voltage 7621.0;
}

object node:496 {
	name            node_496; // NodeID: 5288861
	phases          C;
	nominal_voltage 7621.0;
}

object node:497 {
	name            node_497; // NodeID: 5289919
	phases          C;
	nominal_voltage 7621.0;
}

object node:498 {
	name            node_498; // NodeID: 5290976
	phases          C;
	nominal_voltage 7621.0;
}

object node:499 {
	name            node_499; // NodeID: 5292040
	phases          C;
	nominal_voltage 7621.0;
}

object node:500 {
	name            node_500; // NodeID: 5259757
	phases          ABC;
	nominal_voltage 7621.0;
}

object node:501 {
	name            node_501; // NodeID: 5452401
	phases          ABC;
	nominal_voltage 7621.0;
}

object node:502 {
	name            node_502; // NodeID: 5260838
	phases          ABC;
	nominal_voltage 7621.0;
}

object node:503 {
	name            node_503; // NodeID: 5261917
	phases          ABC;
	nominal_voltage 7621.0;
}

object node:504 {
	name            node_504; // NodeID: 5262985
	phases          ABC;
	nominal_voltage 7621.0;
}

object node:505 {
	name            node_505; // NodeID: 5264068
	phases          ABC;
	nominal_voltage 7621.0;
}

object node:506 {
	name            node_506; // NodeID: 5265155
	phases          ABC;
	nominal_voltage 7621.0;
}

object node:507 {
	name            node_507; // NodeID: 5343073
	phases          C;
	nominal_voltage 7621.0;
}

object node:508 {
	name            node_508; // NodeID: 13692253
	phases          C;
	nominal_voltage 7621.0;
}

object node:509 {
	name            node_509; // NodeID: 5345071
	phases          C;
	nominal_voltage 7621.0;
}

object node:510 {
	name            node_510; // NodeID: 5349081
	phases          C;
	nominal_voltage 7621.0;
}

object node:512 {
	name            node_512; // NodeID: 13692255
	phases          C;
	nominal_voltage 7621.0;
}

object node:513 {
	name            node_513; // NodeID: 5347074
	phases          C;
	nominal_voltage 7621.0;
}

object node:514 {
	name            node_514; // NodeID: 5351078
	phases          C;
	nominal_voltage 7621.0;
}

object node:515 {
	name            node_515; // NodeID: 8217535
	phases          C;
	nominal_voltage 7621.0;
}

object node:516 {
	name            node_516; // NodeID: 8233974
	phases          C;
	nominal_voltage 7621.0;
}

object node:517 {
	name            node_517; // NodeID: 5352075
	phases          C;
	nominal_voltage 7621.0;
}

object node:518 {
	name            node_518; // NodeID: 8217540
	phases          C;
	nominal_voltage 7621.0;
}

object node:519 {
	name            node_519; // NodeID: 5266243
	phases          ABC;
	nominal_voltage 7621.0;
}

object node:520 {
	name            node_520; // NodeID: 5267346
	phases          ABC;
	nominal_voltage 7621.0;
}

object node:521 {
	name            node_521; // NodeID: 5274923
	phases          ABC;
	nominal_voltage 7621.0;
}

object node:522 {
	name            node_522; // NodeID: 4947800
	phases          ABC;
	nominal_voltage 7621.0;
}

object node:523 {
	name            node_523; // NodeID: 4952302
	phases          ABC;
	nominal_voltage 7621.0;
}

object node:524 {
	name            node_524; // NodeID: 4838154
	phases          ABC;
	nominal_voltage 7621.0;
}

object node:525 {
	name            node_525; // NodeID: 4839841
	phases          ABC;
	nominal_voltage 7621.0;
}

object node:526 {
	name            node_526; // NodeID: 4841524
	phases          ABC;
	nominal_voltage 7621.0;
}

object node:527 {
	name            node_527; // NodeID: 4848267
	phases          C;
	nominal_voltage 7621.0;
}

object node:528 {
	name            node_528; // NodeID: 4861539
	phases          C;
	nominal_voltage 7621.0;
}

object node:529 {
	name            node_529; // NodeID: 4864814
	phases          C;
	nominal_voltage 7621.0;
}

object node:530 {
	name            node_530; // NodeID: 4866448
	phases          C;
	nominal_voltage 7621.0;
}

object node:531 {
	name            node_531; // NodeID: 4869712
	phases          C;
	nominal_voltage 7621.0;
}

object node:532 {
	name            node_532; // NodeID: 4877780
	phases          C;
	nominal_voltage 7621.0;
}

object node:533 {
	name            node_533; // NodeID: 4882557
	phases          C;
	nominal_voltage 7621.0;
}

object node:534 {
	name            node_534; // NodeID: 4879355
	phases          C;
	nominal_voltage 7621.0;
}

object node:535 {
	name            node_535; // NodeID: 4731868
	phases          C;
	nominal_voltage 7621.0;
}

object node:536 {
	name            node_536; // NodeID: 8214406
	phases          C;
	nominal_voltage 7621.0;
}

object node:537 {
	name            node_537; // NodeID: 8231169
	phases          C;
	nominal_voltage 7621.0;
}

object node:538 {
	name            node_538; // NodeID: 4733714
	phases          C;
	nominal_voltage 7621.0;
}

object node:539 {
	name            node_539; // NodeID: 8214414
	phases          C;
	nominal_voltage 7621.0;
}

object node:540 {
	name            node_540; // NodeID: 8231180
	phases          C;
	nominal_voltage 7621.0;
}

object node:541 {
	name            node_541; // NodeID: 4735540
	phases          C;
	nominal_voltage 7621.0;
}

object node:543 {
	name            node_543; // NodeID: 4868076
	phases          C;
	nominal_voltage 7621.0;
}

object node:544 {
	name            node_544; // NodeID: 4871334
	phases          C;
	nominal_voltage 7621.0;
}

object node:545 {
...